<?xml version="1.0" encoding="UTF-8"?>

<!-- generated on 2024-07-29 16:04:00 by Eclipse SUMO netedit Version 1.20.0
<configuration xmlns:xsi="http://www.w3.org/2001/XMLSchema-instance" xsi:noNamespaceSchemaLocation="http://sumo.dlr.de/xsd/neteditConfiguration.xsd">

    <input>
        <sumo-net-file value="E:\PythonWorkspace\HHRL-SVCC\sumo_sim_env\four\net_2_2.net.xml"/>
    </input>

    <output>
        <output-file value="E:\PythonWorkspace\HHRL-SVCC\sumo_sim_env\four\net_2_2.net.xml"/>
    </output>

    <processing>
        <geometry.min-radius.fix.railways value="false"/>
        <geometry.max-grade.fix value="false"/>
        <offset.disable-normalization value="true"/>
        <lefthand value="0"/>
    </processing>

    <junctions>
        <no-turnarounds value="true"/>
        <junctions.corner-detail value="5"/>
        <junctions.limit-turn-speed value="5.50"/>
        <rectangular-lane-cut value="0"/>
    </junctions>

    <pedestrian>
        <walkingareas value="0"/>
    </pedestrian>

</configuration>
-->

<net version="1.20" junctionCornerDetail="5" limitTurnSpeed="5.50" xmlns:xsi="http://www.w3.org/2001/XMLSchema-instance" xsi:noNamespaceSchemaLocation="http://sumo.dlr.de/xsd/net_file.xsd">

    <location netOffset="0.00,0.00" convBoundary="-300.00,-600.00,600.00,300.00" origBoundary="-10000000000.00,-10000000000.00,10000000000.00,10000000000.00" projParameter="!"/>

    <edge id=":n_0_0" function="internal">
        <lane id=":n_0_0_0" index="0" speed="6.51" length="9.03" shape="-8.00,13.60 -8.35,11.15 -9.40,9.40 -11.15,8.35 -13.60,8.00"/>
        <lane id=":n_0_0_1" index="1" speed="7.33" length="11.73" shape="-8.00,13.60 -8.35,9.75 -9.40,7.00 -11.15,5.35 -13.60,4.80"/>
        <lane id=":n_0_0_2" index="2" speed="8.10" length="14.57" shape="-8.00,13.60 -8.35,8.35 -9.40,4.60 -11.15,2.35 -13.60,1.60"/>
    </edge>
    <edge id=":n_0_3" function="internal">
        <lane id=":n_0_3_0" index="0" speed="13.89" length="27.37" shape="-4.80,13.60 -5.30,5.50 -6.40,0.00 -7.50,-5.50 -8.00,-13.60"/>
        <lane id=":n_0_3_1" index="1" speed="13.89" length="27.37" shape="-4.80,13.60 -4.80,-13.60"/>
        <lane id=":n_0_3_2" index="2" speed="13.89" length="27.37" shape="-4.80,13.60 -4.30,5.50 -3.20,0.00 -2.10,-5.50 -1.60,-13.60"/>
    </edge>
    <edge id=":n_0_6" function="internal">
        <lane id=":n_0_6_0" index="0" speed="11.39" length="29.85" shape="-1.60,13.60 -0.65,4.15 2.20,-2.60 6.95,-6.65 13.60,-8.00"/>
        <lane id=":n_0_6_1" index="1" speed="10.88" length="27.14" shape="-1.60,13.60 -0.65,5.55 2.20,-0.20 6.95,-3.65 13.60,-4.80"/>
        <lane id=":n_0_6_2" index="2" speed="10.36" length="24.51" shape="-1.60,13.60 -0.65,6.95 2.20,2.20 6.95,-0.65 13.60,-1.60"/>
    </edge>
    <edge id=":n_0_9" function="internal">
        <lane id=":n_0_9_0" index="0" speed="6.51" length="9.03" shape="13.60,8.00 11.15,8.35 9.40,9.40 8.35,11.15 8.00,13.60"/>
        <lane id=":n_0_9_1" index="1" speed="7.33" length="11.73" shape="13.60,8.00 9.75,8.35 7.00,9.40 5.35,11.15 4.80,13.60"/>
        <lane id=":n_0_9_2" index="2" speed="8.10" length="14.57" shape="13.60,8.00 8.35,8.35 4.60,9.40 2.35,11.15 1.60,13.60"/>
    </edge>
    <edge id=":n_0_12" function="internal">
        <lane id=":n_0_12_0" index="0" speed="13.89" length="27.37" shape="13.60,4.80 5.50,5.30 0.00,6.40 -5.50,7.50 -13.60,8.00"/>
        <lane id=":n_0_12_1" index="1" speed="13.89" length="27.37" shape="13.60,4.80 -13.60,4.80"/>
        <lane id=":n_0_12_2" index="2" speed="13.89" length="27.37" shape="13.60,4.80 5.50,4.30 0.00,3.20 -5.50,2.10 -13.60,1.60"/>
    </edge>
    <edge id=":n_0_15" function="internal">
        <lane id=":n_0_15_0" index="0" speed="11.39" length="29.85" shape="13.60,1.60 4.15,0.65 -2.60,-2.20 -6.65,-6.95 -8.00,-13.60"/>
        <lane id=":n_0_15_1" index="1" speed="10.88" length="27.14" shape="13.60,1.60 5.55,0.65 -0.20,-2.20 -3.65,-6.95 -4.80,-13.60"/>
        <lane id=":n_0_15_2" index="2" speed="10.36" length="24.51" shape="13.60,1.60 6.95,0.65 2.20,-2.20 -0.65,-6.95 -1.60,-13.60"/>
    </edge>
    <edge id=":n_0_18" function="internal">
        <lane id=":n_0_18_0" index="0" speed="6.51" length="9.03" shape="8.00,-13.60 8.35,-11.15 9.40,-9.40 11.15,-8.35 13.60,-8.00"/>
        <lane id=":n_0_18_1" index="1" speed="7.33" length="11.73" shape="8.00,-13.60 8.35,-9.75 9.40,-7.00 11.15,-5.35 13.60,-4.80"/>
        <lane id=":n_0_18_2" index="2" speed="8.10" length="14.57" shape="8.00,-13.60 8.35,-8.35 9.40,-4.60 11.15,-2.35 13.60,-1.60"/>
    </edge>
    <edge id=":n_0_21" function="internal">
        <lane id=":n_0_21_0" index="0" speed="13.89" length="27.37" shape="4.80,-13.60 5.30,-5.50 6.40,-0.00 7.50,5.50 8.00,13.60"/>
        <lane id=":n_0_21_1" index="1" speed="13.89" length="27.37" shape="4.80,-13.60 4.80,13.60"/>
        <lane id=":n_0_21_2" index="2" speed="13.89" length="27.37" shape="4.80,-13.60 4.30,-5.50 3.20,-0.00 2.10,5.50 1.60,13.60"/>
    </edge>
    <edge id=":n_0_24" function="internal">
        <lane id=":n_0_24_0" index="0" speed="11.39" length="29.85" shape="1.60,-13.60 0.65,-4.15 -2.20,2.60 -6.95,6.65 -13.60,8.00"/>
        <lane id=":n_0_24_1" index="1" speed="10.88" length="27.14" shape="1.60,-13.60 0.65,-5.55 -2.20,0.20 -6.95,3.65 -13.60,4.80"/>
        <lane id=":n_0_24_2" index="2" speed="10.36" length="24.51" shape="1.60,-13.60 0.65,-6.95 -2.20,-2.20 -6.95,0.65 -13.60,1.60"/>
    </edge>
    <edge id=":n_0_27" function="internal">
        <lane id=":n_0_27_0" index="0" speed="6.51" length="9.03" shape="-13.60,-8.00 -11.15,-8.35 -9.40,-9.40 -8.35,-11.15 -8.00,-13.60"/>
        <lane id=":n_0_27_1" index="1" speed="7.33" length="11.73" shape="-13.60,-8.00 -9.75,-8.35 -7.00,-9.40 -5.35,-11.15 -4.80,-13.60"/>
        <lane id=":n_0_27_2" index="2" speed="8.10" length="14.57" shape="-13.60,-8.00 -8.35,-8.35 -4.60,-9.40 -2.35,-11.15 -1.60,-13.60"/>
    </edge>
    <edge id=":n_0_30" function="internal">
        <lane id=":n_0_30_0" index="0" speed="13.89" length="27.37" shape="-13.60,-4.80 -5.50,-5.30 -0.00,-6.40 5.50,-7.50 13.60,-8.00"/>
        <lane id=":n_0_30_1" index="1" speed="13.89" length="27.37" shape="-13.60,-4.80 13.60,-4.80"/>
        <lane id=":n_0_30_2" index="2" speed="13.89" length="27.37" shape="-13.60,-4.80 -5.50,-4.30 -0.00,-3.20 5.50,-2.10 13.60,-1.60"/>
    </edge>
    <edge id=":n_0_33" function="internal">
        <lane id=":n_0_33_0" index="0" speed="11.39" length="29.85" shape="-13.60,-1.60 -4.15,-0.65 2.60,2.20 6.65,6.95 8.00,13.60"/>
        <lane id=":n_0_33_1" index="1" speed="10.88" length="27.14" shape="-13.60,-1.60 -5.55,-0.65 0.20,2.20 3.65,6.95 4.80,13.60"/>
        <lane id=":n_0_33_2" index="2" speed="10.36" length="24.51" shape="-13.60,-1.60 -6.95,-0.65 -2.20,2.20 0.65,6.95 1.60,13.60"/>
    </edge>
    <edge id=":n_1_0" function="internal">
        <lane id=":n_1_0_0" index="0" speed="6.51" length="9.03" shape="292.00,13.60 291.65,11.15 290.60,9.40 288.85,8.35 286.40,8.00"/>
        <lane id=":n_1_0_1" index="1" speed="7.33" length="11.73" shape="292.00,13.60 291.65,9.75 290.60,7.00 288.85,5.35 286.40,4.80"/>
        <lane id=":n_1_0_2" index="2" speed="8.10" length="14.57" shape="292.00,13.60 291.65,8.35 290.60,4.60 288.85,2.35 286.40,1.60"/>
    </edge>
    <edge id=":n_1_3" function="internal">
        <lane id=":n_1_3_0" index="0" speed="13.89" length="27.37" shape="295.20,13.60 294.70,5.50 293.60,0.00 292.50,-5.50 292.00,-13.60"/>
        <lane id=":n_1_3_1" index="1" speed="13.89" length="27.37" shape="295.20,13.60 295.20,-13.60"/>
        <lane id=":n_1_3_2" index="2" speed="13.89" length="27.37" shape="295.20,13.60 295.70,5.50 296.80,0.00 297.90,-5.50 298.40,-13.60"/>
    </edge>
    <edge id=":n_1_6" function="internal">
        <lane id=":n_1_6_0" index="0" speed="11.39" length="29.85" shape="298.40,13.60 299.35,4.15 302.20,-2.60 306.95,-6.65 313.60,-8.00"/>
        <lane id=":n_1_6_1" index="1" speed="10.88" length="27.14" shape="298.40,13.60 299.35,5.55 302.20,-0.20 306.95,-3.65 313.60,-4.80"/>
        <lane id=":n_1_6_2" index="2" speed="10.36" length="24.51" shape="298.40,13.60 299.35,6.95 302.20,2.20 306.95,-0.65 313.60,-1.60"/>
    </edge>
    <edge id=":n_1_9" function="internal">
        <lane id=":n_1_9_0" index="0" speed="6.51" length="9.03" shape="313.60,8.00 311.15,8.35 309.40,9.40 308.35,11.15 308.00,13.60"/>
        <lane id=":n_1_9_1" index="1" speed="7.33" length="11.73" shape="313.60,8.00 309.75,8.35 307.00,9.40 305.35,11.15 304.80,13.60"/>
        <lane id=":n_1_9_2" index="2" speed="8.10" length="14.57" shape="313.60,8.00 308.35,8.35 304.60,9.40 302.35,11.15 301.60,13.60"/>
    </edge>
    <edge id=":n_1_12" function="internal">
        <lane id=":n_1_12_0" index="0" speed="13.89" length="27.37" shape="313.60,4.80 305.50,5.30 300.00,6.40 294.50,7.50 286.40,8.00"/>
        <lane id=":n_1_12_1" index="1" speed="13.89" length="27.37" shape="313.60,4.80 286.40,4.80"/>
        <lane id=":n_1_12_2" index="2" speed="13.89" length="27.37" shape="313.60,4.80 305.50,4.30 300.00,3.20 294.50,2.10 286.40,1.60"/>
    </edge>
    <edge id=":n_1_15" function="internal">
        <lane id=":n_1_15_0" index="0" speed="11.39" length="29.85" shape="313.60,1.60 304.15,0.65 297.40,-2.20 293.35,-6.95 292.00,-13.60"/>
        <lane id=":n_1_15_1" index="1" speed="10.88" length="27.14" shape="313.60,1.60 305.55,0.65 299.80,-2.20 296.35,-6.95 295.20,-13.60"/>
        <lane id=":n_1_15_2" index="2" speed="10.36" length="24.51" shape="313.60,1.60 306.95,0.65 302.20,-2.20 299.35,-6.95 298.40,-13.60"/>
    </edge>
    <edge id=":n_1_18" function="internal">
        <lane id=":n_1_18_0" index="0" speed="6.51" length="9.03" shape="308.00,-13.60 308.35,-11.15 309.40,-9.40 311.15,-8.35 313.60,-8.00"/>
        <lane id=":n_1_18_1" index="1" speed="7.33" length="11.73" shape="308.00,-13.60 308.35,-9.75 309.40,-7.00 311.15,-5.35 313.60,-4.80"/>
        <lane id=":n_1_18_2" index="2" speed="8.10" length="14.57" shape="308.00,-13.60 308.35,-8.35 309.40,-4.60 311.15,-2.35 313.60,-1.60"/>
    </edge>
    <edge id=":n_1_21" function="internal">
        <lane id=":n_1_21_0" index="0" speed="13.89" length="27.37" shape="304.80,-13.60 305.30,-5.50 306.40,-0.00 307.50,5.50 308.00,13.60"/>
        <lane id=":n_1_21_1" index="1" speed="13.89" length="27.37" shape="304.80,-13.60 304.80,13.60"/>
        <lane id=":n_1_21_2" index="2" speed="13.89" length="27.37" shape="304.80,-13.60 304.30,-5.50 303.20,-0.00 302.10,5.50 301.60,13.60"/>
    </edge>
    <edge id=":n_1_24" function="internal">
        <lane id=":n_1_24_0" index="0" speed="11.39" length="29.85" shape="301.60,-13.60 300.65,-4.15 297.80,2.60 293.05,6.65 286.40,8.00"/>
        <lane id=":n_1_24_1" index="1" speed="10.88" length="27.14" shape="301.60,-13.60 300.65,-5.55 297.80,0.20 293.05,3.65 286.40,4.80"/>
        <lane id=":n_1_24_2" index="2" speed="10.36" length="24.51" shape="301.60,-13.60 300.65,-6.95 297.80,-2.20 293.05,0.65 286.40,1.60"/>
    </edge>
    <edge id=":n_1_27" function="internal">
        <lane id=":n_1_27_0" index="0" speed="6.51" length="9.03" shape="286.40,-8.00 288.85,-8.35 290.60,-9.40 291.65,-11.15 292.00,-13.60"/>
        <lane id=":n_1_27_1" index="1" speed="7.33" length="11.73" shape="286.40,-8.00 290.25,-8.35 293.00,-9.40 294.65,-11.15 295.20,-13.60"/>
        <lane id=":n_1_27_2" index="2" speed="8.10" length="14.57" shape="286.40,-8.00 291.65,-8.35 295.40,-9.40 297.65,-11.15 298.40,-13.60"/>
    </edge>
    <edge id=":n_1_30" function="internal">
        <lane id=":n_1_30_0" index="0" speed="13.89" length="27.37" shape="286.40,-4.80 294.50,-5.30 300.00,-6.40 305.50,-7.50 313.60,-8.00"/>
        <lane id=":n_1_30_1" index="1" speed="13.89" length="27.37" shape="286.40,-4.80 313.60,-4.80"/>
        <lane id=":n_1_30_2" index="2" speed="13.89" length="27.37" shape="286.40,-4.80 294.50,-4.30 300.00,-3.20 305.50,-2.10 313.60,-1.60"/>
    </edge>
    <edge id=":n_1_33" function="internal">
        <lane id=":n_1_33_0" index="0" speed="11.39" length="29.85" shape="286.40,-1.60 295.85,-0.65 302.60,2.20 306.65,6.95 308.00,13.60"/>
        <lane id=":n_1_33_1" index="1" speed="10.88" length="27.14" shape="286.40,-1.60 294.45,-0.65 300.20,2.20 303.65,6.95 304.80,13.60"/>
        <lane id=":n_1_33_2" index="2" speed="10.36" length="24.51" shape="286.40,-1.60 293.05,-0.65 297.80,2.20 300.65,6.95 301.60,13.60"/>
    </edge>
    <edge id=":n_2_0" function="internal">
        <lane id=":n_2_0_0" index="0" speed="6.51" length="9.03" shape="-8.00,-286.40 -8.35,-288.85 -9.40,-290.60 -11.15,-291.65 -13.60,-292.00"/>
        <lane id=":n_2_0_1" index="1" speed="7.33" length="11.73" shape="-8.00,-286.40 -8.35,-290.25 -9.40,-293.00 -11.15,-294.65 -13.60,-295.20"/>
        <lane id=":n_2_0_2" index="2" speed="8.10" length="14.57" shape="-8.00,-286.40 -8.35,-291.65 -9.40,-295.40 -11.15,-297.65 -13.60,-298.40"/>
    </edge>
    <edge id=":n_2_3" function="internal">
        <lane id=":n_2_3_0" index="0" speed="13.89" length="27.37" shape="-4.80,-286.40 -5.30,-294.50 -6.40,-300.00 -7.50,-305.50 -8.00,-313.60"/>
        <lane id=":n_2_3_1" index="1" speed="13.89" length="27.37" shape="-4.80,-286.40 -4.80,-313.60"/>
        <lane id=":n_2_3_2" index="2" speed="13.89" length="27.37" shape="-4.80,-286.40 -4.30,-294.50 -3.20,-300.00 -2.10,-305.50 -1.60,-313.60"/>
    </edge>
    <edge id=":n_2_6" function="internal">
        <lane id=":n_2_6_0" index="0" speed="11.39" length="29.85" shape="-1.60,-286.40 -0.65,-295.85 2.20,-302.60 6.95,-306.65 13.60,-308.00"/>
        <lane id=":n_2_6_1" index="1" speed="10.88" length="27.14" shape="-1.60,-286.40 -0.65,-294.45 2.20,-300.20 6.95,-303.65 13.60,-304.80"/>
        <lane id=":n_2_6_2" index="2" speed="10.36" length="24.51" shape="-1.60,-286.40 -0.65,-293.05 2.20,-297.80 6.95,-300.65 13.60,-301.60"/>
    </edge>
    <edge id=":n_2_9" function="internal">
        <lane id=":n_2_9_0" index="0" speed="6.51" length="9.03" shape="13.60,-292.00 11.15,-291.65 9.40,-290.60 8.35,-288.85 8.00,-286.40"/>
        <lane id=":n_2_9_1" index="1" speed="7.33" length="11.73" shape="13.60,-292.00 9.75,-291.65 7.00,-290.60 5.35,-288.85 4.80,-286.40"/>
        <lane id=":n_2_9_2" index="2" speed="8.10" length="14.57" shape="13.60,-292.00 8.35,-291.65 4.60,-290.60 2.35,-288.85 1.60,-286.40"/>
    </edge>
    <edge id=":n_2_12" function="internal">
        <lane id=":n_2_12_0" index="0" speed="13.89" length="27.37" shape="13.60,-295.20 5.50,-294.70 0.00,-293.60 -5.50,-292.50 -13.60,-292.00"/>
        <lane id=":n_2_12_1" index="1" speed="13.89" length="27.37" shape="13.60,-295.20 -13.60,-295.20"/>
        <lane id=":n_2_12_2" index="2" speed="13.89" length="27.37" shape="13.60,-295.20 5.50,-295.70 0.00,-296.80 -5.50,-297.90 -13.60,-298.40"/>
    </edge>
    <edge id=":n_2_15" function="internal">
        <lane id=":n_2_15_0" index="0" speed="11.39" length="29.85" shape="13.60,-298.40 4.15,-299.35 -2.60,-302.20 -6.65,-306.95 -8.00,-313.60"/>
        <lane id=":n_2_15_1" index="1" speed="10.88" length="27.14" shape="13.60,-298.40 5.55,-299.35 -0.20,-302.20 -3.65,-306.95 -4.80,-313.60"/>
        <lane id=":n_2_15_2" index="2" speed="10.36" length="24.51" shape="13.60,-298.40 6.95,-299.35 2.20,-302.20 -0.65,-306.95 -1.60,-313.60"/>
    </edge>
    <edge id=":n_2_18" function="internal">
        <lane id=":n_2_18_0" index="0" speed="6.51" length="9.03" shape="8.00,-313.60 8.35,-311.15 9.40,-309.40 11.15,-308.35 13.60,-308.00"/>
        <lane id=":n_2_18_1" index="1" speed="7.33" length="11.73" shape="8.00,-313.60 8.35,-309.75 9.40,-307.00 11.15,-305.35 13.60,-304.80"/>
        <lane id=":n_2_18_2" index="2" speed="8.10" length="14.57" shape="8.00,-313.60 8.35,-308.35 9.40,-304.60 11.15,-302.35 13.60,-301.60"/>
    </edge>
    <edge id=":n_2_21" function="internal">
        <lane id=":n_2_21_0" index="0" speed="13.89" length="27.37" shape="4.80,-313.60 5.30,-305.50 6.40,-300.00 7.50,-294.50 8.00,-286.40"/>
        <lane id=":n_2_21_1" index="1" speed="13.89" length="27.37" shape="4.80,-313.60 4.80,-286.40"/>
        <lane id=":n_2_21_2" index="2" speed="13.89" length="27.37" shape="4.80,-313.60 4.30,-305.50 3.20,-300.00 2.10,-294.50 1.60,-286.40"/>
    </edge>
    <edge id=":n_2_24" function="internal">
        <lane id=":n_2_24_0" index="0" speed="11.39" length="29.85" shape="1.60,-313.60 0.65,-304.15 -2.20,-297.40 -6.95,-293.35 -13.60,-292.00"/>
        <lane id=":n_2_24_1" index="1" speed="10.88" length="27.14" shape="1.60,-313.60 0.65,-305.55 -2.20,-299.80 -6.95,-296.35 -13.60,-295.20"/>
        <lane id=":n_2_24_2" index="2" speed="10.36" length="24.51" shape="1.60,-313.60 0.65,-306.95 -2.20,-302.20 -6.95,-299.35 -13.60,-298.40"/>
    </edge>
    <edge id=":n_2_27" function="internal">
        <lane id=":n_2_27_0" index="0" speed="6.51" length="9.03" shape="-13.60,-308.00 -11.15,-308.35 -9.40,-309.40 -8.35,-311.15 -8.00,-313.60"/>
        <lane id=":n_2_27_1" index="1" speed="7.33" length="11.73" shape="-13.60,-308.00 -9.75,-308.35 -7.00,-309.40 -5.35,-311.15 -4.80,-313.60"/>
        <lane id=":n_2_27_2" index="2" speed="8.10" length="14.57" shape="-13.60,-308.00 -8.35,-308.35 -4.60,-309.40 -2.35,-311.15 -1.60,-313.60"/>
    </edge>
    <edge id=":n_2_30" function="internal">
        <lane id=":n_2_30_0" index="0" speed="13.89" length="27.37" shape="-13.60,-304.80 -5.50,-305.30 -0.00,-306.40 5.50,-307.50 13.60,-308.00"/>
        <lane id=":n_2_30_1" index="1" speed="13.89" length="27.37" shape="-13.60,-304.80 13.60,-304.80"/>
        <lane id=":n_2_30_2" index="2" speed="13.89" length="27.37" shape="-13.60,-304.80 -5.50,-304.30 -0.00,-303.20 5.50,-302.10 13.60,-301.60"/>
    </edge>
    <edge id=":n_2_33" function="internal">
        <lane id=":n_2_33_0" index="0" speed="11.39" length="29.85" shape="-13.60,-301.60 -4.15,-300.65 2.60,-297.80 6.65,-293.05 8.00,-286.40"/>
        <lane id=":n_2_33_1" index="1" speed="10.88" length="27.14" shape="-13.60,-301.60 -5.55,-300.65 0.20,-297.80 3.65,-293.05 4.80,-286.40"/>
        <lane id=":n_2_33_2" index="2" speed="10.36" length="24.51" shape="-13.60,-301.60 -6.95,-300.65 -2.20,-297.80 0.65,-293.05 1.60,-286.40"/>
    </edge>
    <edge id=":n_3_0" function="internal">
        <lane id=":n_3_0_0" index="0" speed="6.51" length="9.03" shape="292.00,-286.40 291.65,-288.85 290.60,-290.60 288.85,-291.65 286.40,-292.00"/>
        <lane id=":n_3_0_1" index="1" speed="7.33" length="11.73" shape="292.00,-286.40 291.65,-290.25 290.60,-293.00 288.85,-294.65 286.40,-295.20"/>
        <lane id=":n_3_0_2" index="2" speed="8.10" length="14.57" shape="292.00,-286.40 291.65,-291.65 290.60,-295.40 288.85,-297.65 286.40,-298.40"/>
    </edge>
    <edge id=":n_3_3" function="internal">
        <lane id=":n_3_3_0" index="0" speed="13.89" length="27.37" shape="295.20,-286.40 294.70,-294.50 293.60,-300.00 292.50,-305.50 292.00,-313.60"/>
        <lane id=":n_3_3_1" index="1" speed="13.89" length="27.37" shape="295.20,-286.40 295.20,-313.60"/>
        <lane id=":n_3_3_2" index="2" speed="13.89" length="27.37" shape="295.20,-286.40 295.70,-294.50 296.80,-300.00 297.90,-305.50 298.40,-313.60"/>
    </edge>
    <edge id=":n_3_6" function="internal">
        <lane id=":n_3_6_0" index="0" speed="11.39" length="29.85" shape="298.40,-286.40 299.35,-295.85 302.20,-302.60 306.95,-306.65 313.60,-308.00"/>
        <lane id=":n_3_6_1" index="1" speed="10.88" length="27.14" shape="298.40,-286.40 299.35,-294.45 302.20,-300.20 306.95,-303.65 313.60,-304.80"/>
        <lane id=":n_3_6_2" index="2" speed="10.36" length="24.51" shape="298.40,-286.40 299.35,-293.05 302.20,-297.80 306.95,-300.65 313.60,-301.60"/>
    </edge>
    <edge id=":n_3_9" function="internal">
        <lane id=":n_3_9_0" index="0" speed="6.51" length="9.03" shape="313.60,-292.00 311.15,-291.65 309.40,-290.60 308.35,-288.85 308.00,-286.40"/>
        <lane id=":n_3_9_1" index="1" speed="7.33" length="11.73" shape="313.60,-292.00 309.75,-291.65 307.00,-290.60 305.35,-288.85 304.80,-286.40"/>
        <lane id=":n_3_9_2" index="2" speed="8.10" length="14.57" shape="313.60,-292.00 308.35,-291.65 304.60,-290.60 302.35,-288.85 301.60,-286.40"/>
    </edge>
    <edge id=":n_3_12" function="internal">
        <lane id=":n_3_12_0" index="0" speed="13.89" length="27.37" shape="313.60,-295.20 305.50,-294.70 300.00,-293.60 294.50,-292.50 286.40,-292.00"/>
        <lane id=":n_3_12_1" index="1" speed="13.89" length="27.37" shape="313.60,-295.20 286.40,-295.20"/>
        <lane id=":n_3_12_2" index="2" speed="13.89" length="27.37" shape="313.60,-295.20 305.50,-295.70 300.00,-296.80 294.50,-297.90 286.40,-298.40"/>
    </edge>
    <edge id=":n_3_15" function="internal">
        <lane id=":n_3_15_0" index="0" speed="11.39" length="29.85" shape="313.60,-298.40 304.15,-299.35 297.40,-302.20 293.35,-306.95 292.00,-313.60"/>
        <lane id=":n_3_15_1" index="1" speed="10.88" length="27.14" shape="313.60,-298.40 305.55,-299.35 299.80,-302.20 296.35,-306.95 295.20,-313.60"/>
        <lane id=":n_3_15_2" index="2" speed="10.36" length="24.51" shape="313.60,-298.40 306.95,-299.35 302.20,-302.20 299.35,-306.95 298.40,-313.60"/>
    </edge>
    <edge id=":n_3_18" function="internal">
        <lane id=":n_3_18_0" index="0" speed="6.51" length="9.03" shape="308.00,-313.60 308.35,-311.15 309.40,-309.40 311.15,-308.35 313.60,-308.00"/>
        <lane id=":n_3_18_1" index="1" speed="7.33" length="11.73" shape="308.00,-313.60 308.35,-309.75 309.40,-307.00 311.15,-305.35 313.60,-304.80"/>
        <lane id=":n_3_18_2" index="2" speed="8.10" length="14.57" shape="308.00,-313.60 308.35,-308.35 309.40,-304.60 311.15,-302.35 313.60,-301.60"/>
    </edge>
    <edge id=":n_3_21" function="internal">
        <lane id=":n_3_21_0" index="0" speed="13.89" length="27.37" shape="304.80,-313.60 305.30,-305.50 306.40,-300.00 307.50,-294.50 308.00,-286.40"/>
        <lane id=":n_3_21_1" index="1" speed="13.89" length="27.37" shape="304.80,-313.60 304.80,-286.40"/>
        <lane id=":n_3_21_2" index="2" speed="13.89" length="27.37" shape="304.80,-313.60 304.30,-305.50 303.20,-300.00 302.10,-294.50 301.60,-286.40"/>
    </edge>
    <edge id=":n_3_24" function="internal">
        <lane id=":n_3_24_0" index="0" speed="11.39" length="29.85" shape="301.60,-313.60 300.65,-304.15 297.80,-297.40 293.05,-293.35 286.40,-292.00"/>
        <lane id=":n_3_24_1" index="1" speed="10.88" length="27.14" shape="301.60,-313.60 300.65,-305.55 297.80,-299.80 293.05,-296.35 286.40,-295.20"/>
        <lane id=":n_3_24_2" index="2" speed="10.36" length="24.51" shape="301.60,-313.60 300.65,-306.95 297.80,-302.20 293.05,-299.35 286.40,-298.40"/>
    </edge>
    <edge id=":n_3_27" function="internal">
        <lane id=":n_3_27_0" index="0" speed="6.51" length="9.03" shape="286.40,-308.00 288.85,-308.35 290.60,-309.40 291.65,-311.15 292.00,-313.60"/>
        <lane id=":n_3_27_1" index="1" speed="7.33" length="11.73" shape="286.40,-308.00 290.25,-308.35 293.00,-309.40 294.65,-311.15 295.20,-313.60"/>
        <lane id=":n_3_27_2" index="2" speed="8.10" length="14.57" shape="286.40,-308.00 291.65,-308.35 295.40,-309.40 297.65,-311.15 298.40,-313.60"/>
    </edge>
    <edge id=":n_3_30" function="internal">
        <lane id=":n_3_30_0" index="0" speed="13.89" length="27.37" shape="286.40,-304.80 294.50,-305.30 300.00,-306.40 305.50,-307.50 313.60,-308.00"/>
        <lane id=":n_3_30_1" index="1" speed="13.89" length="27.37" shape="286.40,-304.80 313.60,-304.80"/>
        <lane id=":n_3_30_2" index="2" speed="13.89" length="27.37" shape="286.40,-304.80 294.50,-304.30 300.00,-303.20 305.50,-302.10 313.60,-301.60"/>
    </edge>
    <edge id=":n_3_33" function="internal">
        <lane id=":n_3_33_0" index="0" speed="11.39" length="29.85" shape="286.40,-301.60 295.85,-300.65 302.60,-297.80 306.65,-293.05 308.00,-286.40"/>
        <lane id=":n_3_33_1" index="1" speed="10.88" length="27.14" shape="286.40,-301.60 294.45,-300.65 300.20,-297.80 303.65,-293.05 304.80,-286.40"/>
        <lane id=":n_3_33_2" index="2" speed="10.36" length="24.51" shape="286.40,-301.60 293.05,-300.65 297.80,-297.80 300.65,-293.05 301.60,-286.40"/>
    </edge>

    <edge id="-E0" from="n_1" to="node_3" priority="-1">
        <lane id="-E0_0" index="0" speed="13.89" length="286.40" shape="308.00,13.60 308.00,300.00" changeLeft="custom1" changeRight="custom1"/>
        <lane id="-E0_1" index="1" speed="13.89" length="286.40" shape="304.80,13.60 304.80,300.00" changeLeft="custom1" changeRight="custom1"/>
        <lane id="-E0_2" index="2" speed="13.89" length="286.40" shape="301.60,13.60 301.60,300.00" changeLeft="custom1" changeRight="custom1"/>
    </edge>
    <edge id="-E1" from="n_1" to="node_4" priority="-1">
        <lane id="-E1_0" index="0" speed="13.89" length="286.40" shape="313.60,-8.00 600.00,-8.00" changeLeft="custom1" changeRight="custom1"/>
        <lane id="-E1_1" index="1" speed="13.89" length="286.40" shape="313.60,-4.80 600.00,-4.80" changeLeft="custom1" changeRight="custom1"/>
        <lane id="-E1_2" index="2" speed="13.89" length="286.40" shape="313.60,-1.60 600.00,-1.60" changeLeft="custom1" changeRight="custom1"/>
    </edge>
    <edge id="-E2" from="n_1" to="n_3" priority="-1">
        <lane id="-E2_0" index="0" speed="13.89" length="272.80" shape="292.00,-13.60 292.00,-286.40" changeLeft="custom1" changeRight="custom1"/>
        <lane id="-E2_1" index="1" speed="13.89" length="272.80" shape="295.20,-13.60 295.20,-286.40" changeLeft="custom1" changeRight="custom1"/>
        <lane id="-E2_2" index="2" speed="13.89" length="272.80" shape="298.40,-13.60 298.40,-286.40" changeLeft="custom1" changeRight="custom1"/>
    </edge>
    <edge id="-E3" from="n_2" to="node_8" priority="-1">
        <lane id="-E3_0" index="0" speed="13.89" length="286.40" shape="-13.60,-292.00 -300.00,-292.00" changeLeft="custom1" changeRight="custom1"/>
        <lane id="-E3_1" index="1" speed="13.89" length="286.40" shape="-13.60,-295.20 -300.00,-295.20" changeLeft="custom1" changeRight="custom1"/>
        <lane id="-E3_2" index="2" speed="13.89" length="286.40" shape="-13.60,-298.40 -300.00,-298.40" changeLeft="custom1" changeRight="custom1"/>
    </edge>
    <edge id="-E4" from="n_2" to="n_3" priority="-1">
        <lane id="-E4_0" index="0" speed="13.89" length="272.80" shape="13.60,-308.00 286.40,-308.00" changeLeft="custom1" changeRight="custom1"/>
        <lane id="-E4_1" index="1" speed="13.89" length="272.80" shape="13.60,-304.80 286.40,-304.80" changeLeft="custom1" changeRight="custom1"/>
        <lane id="-E4_2" index="2" speed="13.89" length="272.80" shape="13.60,-301.60 286.40,-301.60" changeLeft="custom1" changeRight="custom1"/>
    </edge>
    <edge id="-E5" from="n_2" to="node_7" priority="-1">
        <lane id="-E5_0" index="0" speed="13.89" length="286.40" shape="-8.00,-313.60 -8.00,-600.00" changeLeft="custom1" changeRight="custom1"/>
        <lane id="-E5_1" index="1" speed="13.89" length="286.40" shape="-4.80,-313.60 -4.80,-600.00" changeLeft="custom1" changeRight="custom1"/>
        <lane id="-E5_2" index="2" speed="13.89" length="286.40" shape="-1.60,-313.60 -1.60,-600.00" changeLeft="custom1" changeRight="custom1"/>
    </edge>
    <edge id="-E6" from="n_3" to="node_5" priority="-1">
        <lane id="-E6_0" index="0" speed="13.89" length="286.40" shape="313.60,-308.00 600.00,-308.00" changeLeft="custom1" changeRight="custom1"/>
        <lane id="-E6_1" index="1" speed="13.89" length="286.40" shape="313.60,-304.80 600.00,-304.80" changeLeft="custom1" changeRight="custom1"/>
        <lane id="-E6_2" index="2" speed="13.89" length="286.40" shape="313.60,-301.60 600.00,-301.60" changeLeft="custom1" changeRight="custom1"/>
    </edge>
    <edge id="-E7" from="n_3" to="node_6" priority="-1">
        <lane id="-E7_0" index="0" speed="13.89" length="286.40" shape="292.00,-313.60 292.00,-600.00" changeLeft="custom1" changeRight="custom1"/>
        <lane id="-E7_1" index="1" speed="13.89" length="286.40" shape="295.20,-313.60 295.20,-600.00" changeLeft="custom1" changeRight="custom1"/>
        <lane id="-E7_2" index="2" speed="13.89" length="286.40" shape="298.40,-313.60 298.40,-600.00" changeLeft="custom1" changeRight="custom1"/>
    </edge>
    <edge id="-edge_0" from="n_0" to="node_1" priority="-1" length="300.00">
        <lane id="-edge_0_0" index="0" speed="13.89" length="300.00" shape="-13.60,8.00 -300.00,8.00" changeLeft="custom1" changeRight="custom1"/>
        <lane id="-edge_0_1" index="1" speed="13.89" length="300.00" shape="-13.60,4.80 -300.00,4.80" changeLeft="custom1" changeRight="custom1"/>
        <lane id="-edge_0_2" index="2" speed="13.89" length="300.00" shape="-13.60,1.60 -300.00,1.60" changeLeft="custom1" changeRight="custom1"/>
    </edge>
    <edge id="-edge_1" from="n_0" to="node_2" priority="-1" length="300.00">
        <lane id="-edge_1_0" index="0" speed="13.89" length="300.00" shape="8.00,13.60 8.00,300.00" changeLeft="custom1" changeRight="custom1"/>
        <lane id="-edge_1_1" index="1" speed="13.89" length="300.00" shape="4.80,13.60 4.80,300.00" changeLeft="custom1" changeRight="custom1"/>
        <lane id="-edge_1_2" index="2" speed="13.89" length="300.00" shape="1.60,13.60 1.60,300.00" changeLeft="custom1" changeRight="custom1"/>
    </edge>
    <edge id="-edge_2" from="n_0" to="n_1" priority="-1" length="300.00">
        <lane id="-edge_2_0" index="0" speed="13.89" length="300.00" shape="13.60,-8.00 286.40,-8.00" changeLeft="custom1" changeRight="custom1"/>
        <lane id="-edge_2_1" index="1" speed="13.89" length="300.00" shape="13.60,-4.80 286.40,-4.80" changeLeft="custom1" changeRight="custom1"/>
        <lane id="-edge_2_2" index="2" speed="13.89" length="300.00" shape="13.60,-1.60 286.40,-1.60" changeLeft="custom1" changeRight="custom1"/>
    </edge>
    <edge id="-edge_3" from="n_0" to="n_2" priority="-1" length="300.00">
        <lane id="-edge_3_0" index="0" speed="13.89" length="300.00" shape="-8.00,-13.60 -8.00,-286.40" changeLeft="custom1" changeRight="custom1"/>